Measurement: Broad Scan, 780 nm, unoriented, Raman Data RAW
Mineral: Benitoite
Rruff sample: R050320
Ideal chemistry: BaTi^4+^Si_3_O_9_
Locality: San Benito County, California, USA
Source: American Museum of Natural History
Description: Blue fragment
Measured chemistry: Ba_1.00_Ti_1.00_(Si_2.99_Al_0.01_)_Î£=3_O_9_
Raman shift (cm-1)	intensity
105.029	216.103
116.6	295.483
128.171	323.412
139.742	306.793
151.312	488.468
162.883	683.676
174.454	387.526
186.025	547.149
197.595	770.227
209.166	902.308
220.737	1121.46
232.308	720.382
243.879	497.74
255.45	625.622
267.02	741.249
278.591	346.579
290.162	182.654
301.733	153.507
313.303	196.323
324.874	278.327
336.445	543.214
348.016	730.353
359.587	1026.12
371.158	1232.04
382.728	607.413
394.299	449.409
405.87	226.399
417.441	129.72
429.012	129.616
440.582	148.885
452.153	190.615
463.724	238.056
475.295	259.222
486.865	252.929
498.436	318.693
510.007	327.369
521.578	390.638
533.149	601.82
544.72	528.758
556.29	403.422
567.861	694.67
579.432	709.573
591.003	167.039
602.573	99.9245
614.144	88.5743
625.715	83.7434
637.286	78.575
648.857	76.4158
660.428	74.982
671.998	72.0375
683.569	72.3713
695.14	71.1849
706.711	73.5246
718.282	76.5931
729.852	85.4038
741.423	94.5612
752.994	91.6777
764.565	84.3712
776.136	78.749
787.706	77.4305
799.277	76.2618
810.848	75.9953
822.419	77.7589
833.99	79.2317
845.56	86.145
857.131	94.1849
868.702	111.007
880.273	162.977
891.844	274.031
903.414	571.681
914.985	862.294
926.556	1285.94
938.127	1326.75
949.698	727.317
961.268	270.832
972.839	123.366
984.41	94.5199
995.981	89.9109
1007.55	99.4731
1019.12	91.4264
1030.69	73.8732
1042.26	61.3131
1053.84	63.3698
1065.41	59.264
1076.98	58.1322
1088.55	67.6276
1100.12	74.1824
1111.69	65.1888
1123.26	52.9017
1134.83	45.7335
1146.4	38.8585
1157.97	36.4633
1169.54	35.5729
1181.11	35.6765
1192.68	36.8796
1204.26	36.6652
1215.83	35.7956
1227.4	33.6614
1238.97	33.2452
1250.54	32.687
1262.11	32.2711
1273.68	32.0078
1285.25	33.058
1296.82	33.0248
1308.39	32.7776
1319.96	32.1994
1331.53	32.6157
1343.11	31.467
1354.68	31.0045
1366.25	30.0382
1377.82	30.2919
1389.39	31.7885
1400.96	30.814
1412.53	32.8798
1424.1	33.7415
1435.67	34.2277
1447.24	36.1906
1458.81	36.8504
1470.38	37.4265
1481.95	38.1431
1493.53	36.1677
1505.1	35.7657
1516.67	34.0708
1528.24	33.0949
1539.81	31.985
1551.38	30.2556
1562.95	29.7866
1574.52	28.9822
1586.09	29.0903
1597.66	27.4513
1609.23	26.9704
1620.8	26.0249
1632.38	26.4751
1643.95	25.8636
1655.52	26.425
1667.09	25.0448
1678.66	24.8805
1690.23	23.6111
1701.8	23.8412
1713.37	22.6343
1724.94	23.1399
1736.51	21.6256
1748.08	22.2961
1759.65	21.709
1771.22	21.1863
1782.8	20.751
1794.37	20.4061
1805.94	20.5685
1817.51	20.3731
1829.08	21.1207
1840.65	19.1693
1852.22	19.5144
1863.79	19.4155
1875.36	19.1053
1886.93	18.2598
1898.5	17.5819
1910.07	18.2654
1921.64	17.8824
1933.22	17.7421
1944.79	18.0059
1956.36	17.3212
1967.93	17.1588
1979.5	17.1456
1991.07	15.6942
2002.64	16.062
2014.21	15.6112
2025.78	15.3686
2037.35	14.2139
2048.92	14.396
2060.49	13.9961
2072.07	13.2156
2083.64	12.8114
2095.21	12.0305
2106.78	12.0008
2118.35	11.6253
2129.92	12.0565
2141.49	11.508
2153.06	11.6144
2164.63	10.8973
2176.2	11.4492
2187.77	11.5754
2199.34	12.3956
2210.91	12.2413
2222.49	11.2929
2234.06	10.6734
2245.63	10.3974
2257.2	9.16554
2268.77	8.68516
2280.34	8.69714
2291.91	8.43279
2303.48	8.15112
2315.05	8.06341
2326.62	8.09506
2338.19	7.55607
2349.76	7.66264
2361.34	7.38726
2372.91	7.49272
2384.48	6.55127
2396.05	7.43546
2407.62	6.75363
2419.19	6.86778
2430.76	6.63558
2442.33	6.35574
2453.9	6.35271
2465.47	6.3838
2477.04	6.27245
2488.61	5.65968
2500.18	5.59744
2511.76	5.39525
2523.33	5.37044
2534.9	5.35141
2546.47	5.0876
2558.04	5.14958
2569.61	5.37546
2581.18	4.76096
2592.75	4.57589
2604.32	4.69216
2615.89	4.89542
2627.46	4.86673
2639.03	4.5661
2650.61	4.6605
2662.18	3.95613
2673.75	3.64603
2685.32	4.12934
2696.89	3.65777
2708.46	3.87626
2720.03	3.82928
2731.6	3.56749
2743.17	3.36486
2754.74	3.21915
2766.31	3.39507
2777.88	3.09054
2789.45	2.86934
2801.03	3.17091
2812.6	3.02397
2824.17	3.05139
2835.74	2.76403
2847.31	2.28106
2858.88	2.18337
2870.45	2.71539
2882.02	2.46053
2893.59	2.18588
2905.16	1.91603
2916.73	1.99013
2928.3	2.1412
2939.88	1.94014
2951.45	1.76886
2963.02	1.63842
2974.59	1.4869
2986.16	1.64289
2997.73	1.71629
3009.3	1.44626
3020.87	1.48201
3032.44	1.26095
3044.01	1.5246
3055.58	1.50605
3067.15	1.13282
3078.72	1.29986
3090.3	0.999038
3101.87	1.26852
3113.44	1.1317
3125.01	0.877144
3136.58	1.00374
3148.15	1.12199
3159.72	1.28564
3171.29	0.95772
3182.86	1.26086
3194.43	1.05276
3206	0.922956
3217.57	0.586378
3229.15	0.967896
3240.72	0.989841
3252.29	0.638154
3263.86	0.790785
3275.43	1.27083
3287	1.54824
3298.57	0.797152
3310.14	1.59022
3321.71	0.921065
3333.28	1.11493
3344.85	0.884065
3356.42	0.877698
3367.99	0.753147
3379.57	0.716987
3391.14	1.10682
3402.71	1.51795
3414.28	0.962046
3425.85	0.693362
3437.42	0.818321
3448.99	0.819357
3460.56	0.711847
3472.13	0.673951
3483.7	0.411779
3495.27	0.736349
3506.84	0.513221
3518.42	0.299163
3529.99	0.817022
3541.56	0.568777
3553.13	0.554758
3564.7	0.859557
3576.27	0.0997424
3587.84	0.0625172
3599.41	0.574709
3610.98	0.622653
3622.55	0.538533
3634.12	0.683149
3645.69	0.488999
3657.26	0.729244
3668.84	0.384871
3680.41	0.633132
3691.98	0.128991
3703.55	0.610688
3715.12	0.72909
3726.69	0.124945
3738.26	0.367101
3749.83	0.0823493
3761.4	0.344793
3772.97	0.438602
3784.54	0.623805
3796.11	-0.0898634
3807.69	0.162423
3819.26	0.382295
3830.83	0.435435
3842.4	0.17792
3853.97	0.247444
3865.54	0.441205
3877.11	-0.201311
3888.68	0.183389
3900.25	0.408355
3911.82	0.463817
3923.39	0.904365
3934.96	0.130402
3946.53	0.468139
3958.11	0.179902
3969.68	-0.0388456
3981.25	0.192128
3992.82	0.568841
4004.39	0.357525
4015.96	0.335847
4027.53	0.346317
4039.1	0.0391685
4050.67	0.374021
4062.24	-0.0741334
4073.81	0.228891
4085.39	-0.113193
4096.96	0.216319
4108.53	-0.0730207
4120.1	-0.479546
4131.67	0.262777
4143.24	0.215477
4154.81	0.354248
4166.38	0.556033
4177.95	0.260679
4189.52	0.205469
4201.09	0.334464
4212.66	0.315787
4224.23	0.795562
4235.81	0.00719528
4247.38	-0.0291051
4258.95	0.253205
4270.52	0.0477464
4282.09	-0.224171
4293.66	0.0458135
4305.23	-0.0247902
4316.8	-0.391728
4328.37	-0.0518646
4339.94	0.273161
4351.51	-0.471301
4363.08	0.151589
4374.65	1.05962
