Measurement: Broad Scan, 532 nm, unoriented, Raman Data RAW
Mineral: Benitoite
Rruff sample: R050320
Ideal chemistry: BaTi^4+^Si_3_O_9_
Locality: San Benito County, California, USA
Source: American Museum of Natural History
Description: Blue fragment
Measured chemistry: Ba_1.00_Ti_1.00_(Si_2.99_Al_0.01_)_Î£=3_O_9_
Raman shift (cm-1)	intensity
108.532	162.78
125.889	372.745
143.245	411.922
160.601	1016.57
177.957	526.959
195.314	688.857
212.67	1162.95
230.026	1334.77
247.382	865.181
264.738	1817.62
282.094	804.247
299.451	344.859
316.807	413.273
334.163	748.981
351.519	1756.9
368.875	2272.09
386.232	1100.18
403.588	654.273
420.944	263.372
438.3	301.735
455.656	403.697
473.013	599.006
490.369	698.711
507.725	685.867
525.081	1162.79
542.438	1976.54
559.794	1120.69
577.15	3427.12
594.506	494.387
611.862	263.272
629.218	249.943
646.575	258.269
663.931	243.342
681.287	238.395
698.643	246.04
716	241.119
733.356	281.955
750.712	347.395
768.068	296.256
785.424	272.444
802.78	284.823
820.137	286.19
837.493	288.014
854.849	338.427
872.205	470.937
889.562	900.842
906.918	1714.02
924.274	3240.87
941.63	4291.15
958.986	1469.24
976.342	464.322
993.699	366.845
1011.05	463.846
1028.41	446.173
1045.77	333.661
1063.12	399.424
1080.48	281.229
1097.84	292.133
1115.19	271.831
1132.55	239.274
1149.9	230.821
1167.26	218.179
1184.62	221.812
1201.97	235.67
1219.33	222.327
1236.68	229.765
1254.04	223.716
1271.4	226.853
1288.75	237.43
1306.11	226.014
1323.47	231.897
1340.82	227.8
1358.18	228.612
1375.54	221.186
1392.89	217.449
1410.25	213.354
1427.6	229.335
1444.96	241.905
1462.32	249.572
1479.67	250.727
1497.03	264.675
1514.38	246.187
1531.74	247.709
1549.1	246.941
1566.45	250.235
1583.81	239.122
1601.17	233.234
1618.52	246.831
1635.88	240.268
1653.23	234.893
1670.59	241.256
1687.95	246.562
1705.3	240.088
1722.66	236.176
1740.02	243.015
1757.37	246.118
1774.73	247.298
1792.08	242.852
1809.44	254.479
1826.8	259.526
1844.15	257.975
1861.51	262.698
1878.87	247.668
1896.22	252.588
1913.58	268.398
1930.93	258.466
1948.29	259.689
1965.65	262.862
1983	261.616
2000.36	262.143
2017.71	267.391
2035.07	264.042
2052.43	275.211
2069.78	266.418
2087.14	265.607
2104.49	265.629
2121.85	264.653
2139.21	267.505
2156.56	281.288
2173.92	267.674
2191.28	273.335
2208.63	269.173
2225.99	286.018
2243.34	275.266
2260.7	283.123
2278.06	280.083
2295.41	275.744
2312.77	270.626
2330.13	280.168
2347.48	284.85
2364.84	289.155
2382.2	276.664
2399.55	284.38
2416.91	289.761
2434.26	286.134
2451.62	282.816
2468.98	287.312
2486.33	291.516
2503.69	279.833
2521.04	279.635
2538.4	287.392
2555.76	288.908
2573.11	287.826
2590.47	298.779
2607.82	305.329
2625.18	300.307
2642.54	298.779
2659.89	309.357
2677.25	300.023
2694.61	294.329
2711.96	304.084
2729.32	308.366
2746.68	318.228
2764.03	310.143
2781.39	312.447
2798.74	313.397
2816.1	322.736
2833.46	313.68
2850.81	315.592
2868.17	332.046
2885.52	327.199
2902.88	340.934
2920.24	333.656
2937.59	326.185
2954.95	352.235
2972.3	340.142
2989.66	341.07
3007.02	351.615
3024.37	365.312
3041.73	354.645
3059.09	370.892
3076.44	365.105
3093.8	373.433
3111.16	379.846
3128.51	383.738
3145.87	395.568
3163.22	405.426
3180.58	387.622
3197.94	398.178
3215.29	417.814
3232.65	423.393
3250.01	422.883
3267.36	442.365
3284.72	439.153
3302.07	457.264
3319.43	459.301
3336.79	470.4
3354.14	478.105
3371.5	497.512
3388.85	514.68
3406.21	522.618
3423.57	536.084
3440.92	544.53
3458.28	561.72
3475.64	564.187
3492.99	592.116
3510.35	587.877
3527.7	608.691
3545.06	621.318
3562.42	661.073
3579.77	666.822
3597.13	683.33
3614.49	730.479
3631.84	727.819
3649.2	759.225
3666.55	797.565
3683.91	828.98
3701.27	865.016
3718.62	896.379
3735.98	920.816
3753.33	952.524
3770.69	976.92
3788.05	986.952
3805.4	1041.23
3822.76	1081.58
3840.11	1118.62
3857.47	1172.09
3874.83	1221.68
3892.18	1280.89
3909.54	1393.73
3926.9	1434.53
3944.25	1497.03
3961.61	1587.79
3978.97	1620.77
3996.32	1648.51
4013.68	1732.57
4031.03	1842.82
4048.39	2005.12
4065.75	2276.25
4083.1	2602.66
4100.46	2821.83
4117.81	2848
4135.17	2781.71
4152.53	2810.67
4169.88	2769.25
4187.24	2830.88
4204.6	2850.06
4221.95	2970.91
4239.31	3011.55
4256.66	3137.47
4274.02	3294.54
4291.38	3460.55
4308.73	3578.96
4326.09	3638.6
4343.44	3683.75
4360.8	3769.19
4378.16	3891.26
4395.51	3961.82
4412.87	4075.45
4430.23	4144.25
4447.58	4220.58
4464.94	4370.25
4482.3	4521.28
4499.65	4673.76
4517.01	4743.43
4534.36	4839.01
4551.72	4904.9
4569.08	5030.58
4586.43	5128.19
4603.79	5165.01
4621.15	5338.46
4638.5	5349.81
4655.86	5428.65
4673.21	5449.3
4690.57	5611.28
4707.93	5668.96
4725.28	5715.18
4742.64	5767.42
4759.99	5926.4
4777.35	5989.14
4794.71	6040.52
4812.06	6093.25
4829.42	6236.23
4846.77	6308.56
4864.13	6441.38
4881.49	6453.81
4898.84	6468.51
4916.2	6574.64
4933.56	6685.26
4950.91	6739.46
4968.27	6792.93
4985.62	6847.22
5002.98	6906.42
5020.34	6982.66
5037.69	6994.87
5055.05	7124.6
5072.41	7151.06
5089.76	7240
5107.12	7310.14
5124.47	7363.17
5141.83	7418.65
5159.19	7458.73
5176.54	7482.49
5193.9	7583.69
5211.26	7604.49
5228.61	7556.02
5245.97	7650.45
5263.32	7619.99
5280.68	7617.81
5298.04	7624.63
5315.39	7613.38
5332.75	7655.71
5350.1	7546.96
5367.46	7585.91
5384.82	7631.61
5402.17	7643.53
5419.53	7615.53
5436.89	7629.81
5454.24	7552.82
5471.6	7527.34
5488.95	7441.72
5506.31	7412.15
5523.67	7396.07
5541.02	7285.53
5558.38	7304.74
5575.73	7257.79
5593.09	7161.42
5610.45	7115.35
5627.8	7092.95
5645.16	7023.7
5662.52	6936.27
5679.87	6927.69
5697.23	6838.4
5714.59	6757.05
5731.94	6729.75
5749.3	6582.37
5766.65	6447.09
5784.01	6425.55
5801.37	6318.09
5818.72	6320.86
5836.08	6201.35
5853.44	6103.99
5870.79	6040.32
5888.15	5945.8
5905.5	5834.77
5922.86	5803.14
5940.22	5689.75
5957.57	5634.02
5974.93	5482.93
5992.28	5358.96
6009.64	5308.28
6027	5214.47
6044.35	5108.74
6061.71	4975.07
6079.06	4899.4
6096.42	4829.94
6113.78	4742.57
6131.13	4587.77
6148.49	4486.06
6165.85	4436.36
6183.2	4312.42
6200.56	4196.35
6217.91	4083.13
6235.27	4048.32
6252.63	3957.45
6269.98	3818.64
6287.34	3761.84
6304.7	3703.07
6322.05	3574.32
6339.41	3481.61
6356.77	3360.13
6374.12	3278.4
6391.48	3187.73
6408.83	3124.04
6426.19	3052.81
6443.55	2986.86
6460.9	2920.37
6478.26	2828.35
6495.61	2760.66
6512.97	2657.13
6530.33	2636.12
6547.68	2518.91
6565.04	2437.34
6582.4	2355.94
6599.75	2305.24
6617.11	2285.78
